Version 4
SHEET 1 880 680
WIRE 144 0 112 0
WIRE 288 0 224 0
WIRE -176 32 -224 32
WIRE -224 64 -224 32
WIRE 0 144 -16 144
WIRE 112 144 112 0
WIRE 112 144 80 144
WIRE 144 144 112 144
WIRE -224 160 -224 144
WIRE -224 160 -304 160
WIRE 288 160 288 0
WIRE 288 160 208 160
WIRE -304 176 -304 160
WIRE -224 176 -224 160
WIRE 144 176 112 176
WIRE -16 192 -16 144
WIRE 112 192 112 176
WIRE -224 304 -224 256
WIRE -176 304 -224 304
WIRE -16 304 -16 272
WIRE 112 304 112 272
FLAG -304 176 0
FLAG -176 32 +15V
FLAG -176 304 -15V
FLAG 176 128 +15V
FLAG 176 192 -15V
FLAG 112 304 0
FLAG -16 304 0
SYMBOL voltage -224 48 R0
SYMATTR InstName V1
SYMATTR Value 15
SYMBOL voltage -224 160 R0
SYMATTR InstName V2
SYMATTR Value 15
SYMBOL res 96 128 R90
WINDOW 0 0 56 VBottom 2
WINDOW 3 32 56 VTop 2
SYMATTR InstName R1
SYMATTR Value 1k
SYMBOL res 240 -16 R90
WINDOW 0 0 56 VBottom 2
WINDOW 3 32 56 VTop 2
SYMATTR InstName R2
SYMATTR Value 240k
SYMBOL res 96 176 R0
SYMATTR InstName R3
SYMATTR Value 1k
SYMBOL voltage -16 176 R0
WINDOW 3 -87 100 Left 2
WINDOW 123 0 0 Left 0
WINDOW 39 0 0 Left 0
SYMATTR InstName V3
SYMATTR Value SINE(0 0.1 10k)
SYMBOL EXTRA\\AudioOpamp\\TI\\NE5532 176 160 R0
SYMATTR InstName U1
TEXT -176 400 Left 2 !.tran 10m
